204
Ti6 H100 C68 O30
Ti 7.580340 2.037636 9.692428
Ti -1.205750 10.478558 1.698350
Ti 1.411599 11.463458 3.898072
Ti 4.962991 1.052737 7.492706
Ti 3.895192 0.905797 3.910579
Ti 2.479399 11.610398 7.480200
H 0.144314 1.883687 13.338905
H 6.230276 10.632507 -1.948126
H 9.403471 3.593399 -2.485331
H -3.028881 8.922795 13.876109
H 0.101671 2.977603 0.250404
H 6.272919 9.538592 11.140375
H 9.563954 2.026372 -2.315007
H -3.189364 10.489823 13.705786
H 0.606173 3.642213 11.969453
H 5.768417 8.873982 -0.578674
H 1.279056 3.836214 13.389913
H 5.095534 8.679981 -1.999134
H -0.033290 4.641005 13.017253
H 6.407880 7.875190 -1.626474
H 7.718432 4.806219 10.792131
H -1.343842 7.709976 0.598648
H 5.179403 4.811225 11.285465
H 1.195187 7.704969 0.105314
H 5.851891 6.243078 11.200780
H 0.522699 6.273117 0.189999
H 6.440332 5.150414 12.183767
H -0.065742 7.365781 -0.792988
H 6.332916 5.744933 8.645919
H 0.041674 6.771261 2.744860
H 7.854530 5.306867 8.700182
H -1.479940 7.209328 2.690596
H 7.365407 6.573505 9.516893
H -0.990817 5.942689 1.873886
H 8.193926 2.793615 2.261638
H -1.819336 9.722580 9.129141
H -0.984955 4.522101 4.783383
H 7.359545 7.994094 6.607395
H -0.392994 5.379460 6.848139
H 6.767584 7.136734 4.542640
H -1.342757 4.488307 8.772675
H 7.717347 8.027887 2.618104
H 2.986126 9.534837 1.857158
H 3.388464 2.981358 9.533621
H 4.198422 7.955293 3.643583
H 2.176168 4.560901 7.747195
H 3.860191 7.694956 2.119618
H 2.514399 4.821238 9.271161
H 2.691476 7.797589 3.182892
H 3.683114 4.718605 8.207887
H 4.392444 11.185723 1.996911
H 1.982146 1.330471 9.393868
H 5.144052 9.847742 1.603079
H 1.230538 2.668453 9.787700
H 5.262296 10.418480 3.075236
H 1.112294 2.097714 8.315543
H 2.583793 3.733581 5.430038
H 3.790797 8.782614 5.960741
H 4.763367 4.095299 5.450937
H 1.611223 8.420896 5.939842
H 4.055160 5.453306 5.043671
H 2.319430 7.062889 6.347108
H 4.767626 4.568411 3.938968
H 1.606964 7.947784 7.451811
H 2.305348 4.713599 2.862059
H 4.069242 7.802596 8.528720
H 1.719176 5.343164 4.192212
H 4.655414 7.173031 7.198567
H 1.172329 3.952614 3.665472
H 5.202261 8.563580 7.725306
H -3.862752 11.663842 2.700692
H 10.237342 0.852353 8.690086
H 1.227972 0.020026 6.133531
H 5.146618 12.496169 5.257248
H -0.143810 0.693397 5.719765
H 6.518401 11.822797 5.671013
H 1.216370 1.481917 5.523648
H 5.158220 11.034277 5.867131
H 0.706208 1.773545 3.057626
H 5.668382 10.742650 8.333152
H 10.084766 0.918689 0.763340
H -3.710176 11.597506 10.627439
H 0.545695 0.493138 2.139710
H 5.828895 12.023057 9.251068
H -0.732803 10.951670 12.688483
H 7.107394 1.564524 -1.297704
H -0.500077 11.343427 10.411098
H 6.874667 1.172767 0.979680
H 4.075564 0.976263 10.997498
H 2.299026 11.539931 0.393281
H 3.981601 2.774840 12.450970
H 2.392989 9.741354 -1.060191
H 4.309641 4.830000 1.400542
H 2.064949 7.686195 9.990237
H 6.558429 4.614721 1.542400
H -0.183839 7.901474 9.848379
H 6.309079 6.122922 1.128851
H 0.065511 6.393272 10.261927
H 6.764555 5.067807 0.038202
H -0.389965 7.448387 11.352576
H 4.610600 5.868844 -1.217969
H 1.763990 6.647351 12.608748
H 4.207869 6.756242 0.031439
H 2.166721 5.759953 11.359340
H 3.228257 5.623526 -0.484529
H 3.146333 6.892668 11.875308
C -0.378371 2.718517 13.443456
C 6.752962 9.797677 -2.052677
C -0.710247 2.838673 -0.262129
C 7.084837 9.677522 11.652908
C 0.435869 3.799917 12.910504
C 5.938721 8.716278 -1.519725
C 6.840636 4.851277 10.335421
C -0.466046 7.664918 1.055358
C 6.019456 5.295602 11.322238
C 0.355134 7.220593 0.068541
C 7.121231 5.686107 9.209531
C -0.746640 6.830087 2.181248
C 8.177944 3.136558 5.497803
C -1.803354 9.379636 5.892976
C 7.825599 2.610878 4.241070
C -1.451009 9.905316 7.149709
C 8.417857 3.136558 3.107299
C -2.043267 9.379636 8.283479
C -1.373137 4.167893 5.563670
C 7.747727 8.348302 5.827109
C -1.018165 4.679805 6.787610
C 7.392755 7.836389 4.603169
C 9.117551 4.152873 5.578488
C -2.742961 8.363321 5.812291
C 6.813294 1.510705 4.137230
C -0.438704 11.005490 7.253549
C 7.490157 2.660943 6.729431
C -1.115567 9.855252 4.661348
C 3.486762 9.527327 2.711822
C 2.887829 2.988867 8.678957
C 3.565555 8.134275 2.931209
C 2.809035 4.381920 8.459570
C 4.673663 10.312093 2.312524
C 1.700927 2.204102 9.078255
C 2.982955 3.814936 4.528781
C 3.391635 8.701259 6.861998
C 4.251692 4.545882 4.761170
C 2.122898 7.970313 6.629609
C 1.957219 4.515843 3.745046
C 4.417371 8.000352 7.645732
C 0.932773 0.025032 4.091009
C 5.441817 12.491162 7.299769
C 0.796057 0.608287 5.494361
C 5.578533 11.907908 5.896417
C 0.336108 0.878637 3.004637
C 6.038482 11.637558 8.386141
C 3.665207 0.389254 -0.469371
C 2.709383 12.126941 11.860150
C -0.649895 11.831559 12.370345
C 7.024485 0.684636 -0.979566
C -0.508631 12.066863 11.011676
C 6.883222 0.449331 0.379103
C 3.955794 0.827320 11.918009
C 2.418797 11.688874 -0.527230
C 3.759009 1.692190 -0.959401
C 2.615581 10.824005 12.350179
C 3.910244 1.898707 12.787042
C 2.464346 10.617488 -1.396263
C 3.643140 0.078852 0.992020
C 2.731450 12.437343 10.398759
C 3.667474 2.902506 -0.092525
C 2.707116 9.613689 11.483303
C 4.816011 4.886322 0.551466
C 1.558579 7.629872 10.839313
C 6.234919 5.199227 0.840799
C 0.139671 7.316967 10.549980
C 4.158188 5.870095 -0.359712
C 2.216402 6.646099 11.750490
O 9.152773 2.573330 10.304251
O -2.778183 9.942865 1.086528
O 6.611579 3.518302 9.992020
O -0.236989 8.997892 1.398758
O 8.137555 2.656437 7.798785
O -1.762965 9.859758 3.591994
O 6.277816 2.320628 6.601545
O 0.096774 10.195567 4.789234
O 2.609145 10.224229 3.499335
O 3.765445 2.291966 7.891444
O 1.865150 11.939073 5.742827
O 4.509440 0.577122 5.647952
O 7.088591 0.400643 4.673425
O -0.714001 12.115551 6.717354
O 5.759216 1.770916 3.508009
O 0.615374 10.745278 7.882770
O 0.383239 11.539055 2.327979
O 5.991352 0.977139 9.062800
O 3.179228 2.503239 4.127601
O 3.195362 10.012956 7.263178
O -2.003506 12.316436 2.427960
O 8.378096 0.199758 8.962819
O -0.922936 11.398498 -0.078074
O 7.297526 1.117696 11.468853
O 3.875714 1.005927 1.810492
O 2.498876 11.510268 9.580286
O 4.825285 3.573374 -0.101306
O 1.549305 8.942821 11.492085
O 2.662104 3.288004 0.458793
O 3.712486 9.228190 10.931985